%oldchk=../GS_OLD/geometry.chk
%chk=geometry.chk
%nprocshared=12
%mem=30GB

# AM1/STO-5G SCF=XQC FORCE nosym guess=read

MD Step 3

0 1
C  -1.03748781  -1.17193354  0.00172886 
C  0.31491196  -1.13813049  0.00274636 
C  1.00843593  0.00027577  -0.00155560 
C  0.31474833  1.13843285  -0.00239973 
C  -1.03761142  1.17190517  -0.00081988 
C  -1.74508758  -0.00000902  0.00059803 
H  -1.67319633  -2.05366278  0.00396793 
H  0.77520377  -2.10609613  0.00520708 
H  0.77491165  2.10641566  -0.00293081 
H  -1.67367106  2.05325811  -0.00007373 
N  2.34544176  0.00017786  -0.00491988 
C  3.09795158  -1.23123169  -0.00050660 
H  4.14093768  -1.02744246  -0.00183076 
H  2.83629609  -1.83311899  0.86180702 
H  2.83545370  -1.83861216  -0.85932099 
C  3.09873140  1.23083201  0.00471711 
H  4.14149153  1.02661619  -0.01478408 
H  2.82406081  1.84701003  -0.84454788 
H  2.84966707  1.82480417  0.87606920 
C  -3.20213324  -0.00029510  0.00007327 
N  -4.32533184  0.00001391  -0.00070529 








