%oldchk=../GS_OLD/geometry.chk
%chk=geometry.chk
%nprocshared=12
%mem=30GB

# AM1/STO-5G SCF=XQC FORCE nosym guess=read

MD Step 4

0 1
C  -1.03613662  -1.17410845  0.00172068 
C  0.31485925  -1.14153163  0.00276884 
C  1.01318232  0.00026317  -0.00155754 
C  0.31471052  1.14182900  -0.00237387 
C  -1.03625394  1.17409629  -0.00079406 
C  -1.74276737  -0.00001312  0.00054340 
H  -1.67209739  -2.06229854  0.00383722 
H  0.77449204  -2.11945213  0.00531178 
H  0.77425910  2.11977534  -0.00280183 
H  -1.67267358  2.06185894  -0.00008830 
N  2.34529270  0.00016734  -0.00498312 
C  3.09361821  -1.23122550  -0.00045981 
H  4.14507169  -1.02420355  -0.00186404 
H  2.82193394  -1.83004646  0.87740550 
H  2.82105257  -1.83564362  -0.87467379 
C  3.09438131  1.23082583  0.00469925 
H  4.14564490  1.02347353  -0.01494287 
H  2.80931126  1.84422047  -0.85997906 
H  2.83560274  1.82163769  0.89165226 
C  -3.20505210  -0.00028437  0.00000236 
N  -4.32004407  0.00000912  -0.00063527 








