%chk=geometry.chk
%nprocshared=12
%mem=5GB

#P OPT PBEPBE/3-21G

Title Card Required

0 1
 C                  0.14723204    0.31213192    0.00000000
 C                  1.54239204    0.31213192    0.00000000
 C                  2.23993004    1.51988292    0.00000000
 C                  1.54227604    2.72839192   -0.00119900
 C                  0.14745104    2.72831392   -0.00167800
 C                 -0.55014996    1.52010792   -0.00068200
 H                 -0.40252696   -0.64018508    0.00045000
 H                  2.09190004   -0.64038108    0.00131500
 H                  2.09247604    3.68053492   -0.00125800
 H                 -0.40267096    3.68059492   -0.00263100
 N                  3.70992979    1.51998986    0.00084750
 C                  4.20067153    0.82654596   -1.19882250
 H                  5.22887358    1.07552038   -1.35917298
 H                  4.10664790   -0.23065492   -1.06322800
 H                  3.62369949    1.13002096   -2.04729535
 C                  4.19928749    0.82757604    1.20167728
 H                  5.24887565    1.00379766    1.31217900
 H                  3.68284866    1.19813647    2.06241876
 H                  4.02233714   -0.22320772    1.10450705
 C                 -2.09014992    1.52036421   -0.00093409
 N                 -3.38374965    1.52118344   -0.00114458







