21
geometry.out	Energy: -285748.0090129
C         -1.20579       -1.21511        0.00000
C          0.18598       -1.21808       -0.00011
C          0.92948        0.00009       -0.00030
C          0.18595        1.21814       -0.00049
C         -1.20587        1.21510       -0.00037
C         -1.93392        0.00000       -0.00007
H         -1.75023       -2.16212        0.00019
H          0.70910       -2.17472        0.00001
H          0.70891        2.17488       -0.00089
H         -1.75026        2.16215       -0.00059
N          2.30924        0.00001       -0.00029
C          3.04804       -1.27378       -0.00001
H          4.12606       -1.05484       -0.00097
H          2.81455       -1.87718        0.89875
H          2.81329       -1.87812       -0.89778
C          3.04826        1.27366        0.00069
H          4.12626        1.05463        0.00187
H          2.81530        1.87783       -0.89768
H          2.81324        1.87741        0.89880
C         -3.35618       -0.00000        0.00018
N         -4.53809       -0.00001        0.00045
