%chk=geometry.chk
%mem=30GB
%nprocshared=12

#P OPT BLYP/STO-5G

TitleMe

0 1
 C                 10.89290518   13.08106905    9.84764110
 C                  9.13081919   11.45613036   10.04321488
 C                 10.07408255   10.41836407    9.93680423
 C                 11.43818989   10.69524262    9.78518040
 C                 11.83959120   12.03973972    9.74229631
 C                 13.15077882   12.69655179    9.62227587
 N                 13.00796131   14.06670827    9.65708091
 N                 14.30617838   11.99670559    9.50403474
 N                 17.85792525   15.26753101    9.04057625
 C                 15.52376152   12.55266220    9.36075207
 C                 16.77976235   11.82035716    9.27386941
 C                 17.07129090   10.44262928    9.33100092
 C                 18.40660306   10.04717784    9.26056309
 C                 19.44322281   10.99753609    9.13651524
 C                 19.16714824   12.36362310    9.07802352
 C                 17.82153677   12.77685279    9.14677554
 C                 17.20363257   14.09652620    9.14509754
 N                 15.83943345   13.89845755    9.28124197
 C                 11.66226143   14.33382053    9.78545117
 C                  9.52622462   12.79867522   10.00016565
 C                 17.26242814   16.48580013    9.07671845
 C                 19.40531993   18.01987916    8.92469102
 C                 13.41242418   18.27179878    9.58813682
 C                 12.17213654   19.00051723    9.82037651
 C                 11.89619458   20.37540235    9.96149760
 C                 10.58048893   20.76345030   10.21521020
 C                  9.54602751   19.80929184   10.32824674
 C                  9.80566227   18.44595949   10.19251173
 C                 11.13133131   18.04162500    9.93679593
 C                 11.73398574   16.72420541    9.78914554
 N                 13.08865499   16.92486934    9.58417144
 N                 11.07417047   15.55317208    9.86410493
 C                 18.03319773   17.73901623    9.01977291
 C                 19.80760889   19.36093270    8.93932429
 C                 18.86492458   20.39940315    9.04750894
 C                 17.49553982   20.12383538    9.14418849
 C                 17.08762275   18.78065321    9.12896456
 C                 15.77507526   18.12411495    9.24965102
 N                 15.91757012   16.75494595    9.20283554
 N                 14.62720069   18.82619572    9.42132986
 H                 13.77150487   16.17248155    9.47225515
 H                 15.15497095   14.65503494    9.34470017
 H                 10.34322283   21.82062659   10.33311731
 H                 12.69290925   21.11391214    9.88080529
 H                 16.76922943   20.93109053    9.23731223
 H                 19.20967916   21.43357084    9.06094276
 H                 20.86729419   19.60752227    8.87066967
 H                 20.13971502   17.21796245    8.85071599
 H                 19.96973962   13.09478945    8.98869040
 H                 20.47642747   10.65373231    9.09179863
 H                 18.65892897    8.98840548    9.31184388
 H                 16.27345956    9.70937412    9.44121664
 H                 12.16802434    9.88886452    9.71752113
 H                  9.73604592    9.38342393    9.98751416
 H                  8.07751005   11.20771448   10.17340290
 H                  8.79420524   13.60036164   10.09603381
 H                  9.00954091   17.70975094   10.29445170
 H                  8.53074024   20.14737983   10.53407958
 C                 10.32840813   11.82481690   13.41260305
 C                  8.60478910   10.16957832   13.68194651
 C                  9.56580226    9.14864405   13.56759418
 C                 10.91990260    9.44995900   13.37779416
 C                 11.29269809   10.80093255   13.30013410
 C                 12.58253411   11.48117443   13.10124087
 N                 12.40670877   12.84651762   13.08178834
 N                 13.75267260   10.80337713   13.00170535
 N                 17.23643964   14.14495834   12.51589796
 C                 14.95747542   11.38409337   12.85396956
 C                 16.23539845   10.68585246   12.84841869
 C                 16.56530129    9.31994305   12.95406934
 C                 17.91308062    8.96162027   12.92456475
 C                 18.92578042    9.93710743   12.79763060
 C                 18.61253173   11.29214994   12.69558992
 C                 17.25433171   11.66565704   12.71942020
 C                 16.60208492   12.96382332   12.63287796
 N                 15.23908759   12.73329157   12.71351490
 C                 11.06516436   13.09088722   13.27390252
 C                  8.97271055   11.51854229   13.60783513
 C                 16.61928593   15.35192305   12.51004277
 C                 18.73911807   16.92061676   12.45254628
 C                 12.73986660   17.05485748   13.03766898
 C                 11.50767559   17.75978167   13.35952405
 C                 11.22601452   19.12904252   13.53463398
 C                  9.91797654   19.49847646   13.84648077
 C                  8.90043827   18.53018236   13.98855866
 C                  9.16901333   17.17133691   13.82408100
 C                 10.48600730   16.78526977   13.50451934
 C                 11.09370815   15.48063664   13.28272219
 N                 12.43000115   15.70570683   12.99604067
 N                 10.45776824   14.29877670   13.37719669
 C                 17.37016764   16.61636800   12.51153554
 C                 19.11689287   18.26813625   12.49180358
 C                 18.15439644   19.28852720   12.59400063
 C                 16.78810498   18.98923385   12.65743203
 C                 16.40434707   17.63987896   12.61154416
 C                 15.10074272   16.96045634   12.66467755
 N                 15.26446889   15.59534297   12.57715377
 N                 13.94058636   17.63539048   12.85667042
 H                 13.10031110   14.96781429   12.77112852
 H                 14.52792426   13.46634781   12.67135624
 H                  9.67194646   20.55170057   13.97964793
 H                 12.00893393   19.87714569   13.41846938
 H                 16.04457677   19.78267274   12.72842022
 H                 18.48060312   20.32836244   12.61445926
 H                 20.17229319   18.53454054   12.43364709
 H                 19.48672413   16.13232924   12.36780489
 H                 19.39396234   12.04361196   12.59188338
 H                 19.96850511    9.62111278   12.77643662
 H                 18.19345142    7.91132384   13.00099325
 H                 15.78600667    8.56537955   13.05412047
 H                 11.66104031    8.65602551   13.28738318
 H                  9.24779741    8.10761333   13.62776681
 H                  7.55814897    9.90280621   13.82960456
 H                  8.22495564   12.30697632   13.69314536
 H                  8.38273230   16.42588795   13.93713532
 H                  7.88871497   18.85419512   14.23232135
 C                 13.35360852   14.04768045   22.32056591
 C                 15.61749049   15.07311125   22.40445527
 C                 15.03880204   16.35096521   22.00521863
 C                 13.64909051   16.45539675   21.77344435
 C                 12.79305862   15.28544911   21.93366815
 C                 12.90921541   12.81437809   21.68124023
 C                 14.06925128   11.94435523   21.52519591
 C                 15.23061510   12.63984924   22.06800642
 C                 16.48823434   12.51383828   21.43663739
 C                 16.91572898   14.94311332   21.75263074
 C                 15.97941018   17.01076579   21.10677885
 C                 15.50100452   17.75447684   20.00490285
 C                 14.06607445   17.86258916   19.76583162
 C                 13.15485852   17.22332690   20.63616866
 C                 11.99290458   16.52814846   20.09384109
 C                 11.76969584   15.33018292   20.89535777
 C                 11.33921050   14.13545724   20.27592047
 C                 11.91813882   12.85750216   20.67519063
 C                 14.20175676   11.14460473   20.36810247
 C                 13.17817478   11.18802820   19.33005917
 C                 12.05423713   12.03118633   19.48119476
 C                 11.55863563   12.79869592   18.34378786
 C                 11.11705420   14.09962047   18.83490452
 C                 11.33296022   15.26082046   18.05870193
 C                 11.77788202   16.49445891   18.69782000
 C                 12.71865949   17.15487614   17.79957442
 C                 13.84503216   17.82816954   18.32454077
 C                 17.13936453   16.14066262   20.95070806
 C                 16.43824606   16.02780987   16.36156656
 C                 17.43037056   15.98465763   17.36577224
 C                 18.00806998   14.70567878   17.76477535
 C                 17.57845106   13.50960359   17.14626629
 C                 16.55443203   13.55423935   16.10986247
 C                 14.55879259   14.89965527   15.49718381
 C                 14.11652171   16.19964799   15.98288783
 C                 15.27781218   16.89825349   16.51757166
 C                 15.14420718   17.69924450   17.67309451
 C                 16.16771041   17.65332141   18.71168690
 C                 17.29187095   16.81022109   18.56054667
 C                 18.22726491   14.74143015   19.20616843
 C                 18.01057863   13.58126760   19.98309413
 C                 17.56677754   12.34744304   19.34421717
 C                 17.35406755   12.31177715   17.94797679
 C                 16.19244814   11.61561747   17.40541379
 C                 15.69786109   12.38413541   16.26984171
 C                 14.30780095   12.49087815   16.04430110
 C                 13.73027225   13.76887102   15.64995911
 C                 12.85624443   16.32836660   16.60656652
 C                 11.99960004   15.15821211   16.76619218
 C                 12.43161404   13.89866192   16.29668972
 C                 12.20442919   12.69906596   17.09161645
 C                 13.36503386   11.82840505   16.93576284
 C                 13.84435952   11.08411459   18.03637136
 C                 15.27967137   10.97715057   18.27514621
 C                 15.50017512   11.01437007   19.71636311
 C                 16.62535418   11.68808039   20.24227048
 C                 17.78475079   16.04164199   19.69777146
 C                 17.34423523   13.68386181   21.27645777
 C                 15.99183340   14.79242302   15.73233040
 C                 14.78830045   13.93978215   22.55968748
 O                 15.40165185   14.52618577   23.80177372









