%chk=geometry.chk
%mem=30GB
%nprocshared=24

#P OPT BLYP/STO-3G

Title Card Required

0 1
 C                 -0.61212815   -0.08009153    0.00000000
 C                  0.85176085   -0.08009153    0.00000000
 C                  1.54404985    1.11910647    0.00000000
 C                  0.81206785    2.38686447   -0.00001900
 C                 -0.57260015    2.38683247    0.00000500
 C                 -1.30450615    1.11903747    0.00002100
 C                 -1.06450815   -1.18647653   -0.84514300
 C                  0.11977785   -1.87022853   -1.36751300
 C                  1.30413785   -1.18643653   -0.84518700
 C                  2.42430885   -1.03373553   -1.64467700
 C                  2.72830485    1.28052947   -0.84525000
 C                  1.54395385    3.33178847   -0.84526500
 C                  0.85155085    4.22556647   -1.64470200
 C                 -0.61234215    4.22554347   -1.64464800
 C                 -1.30460815    3.33173947   -0.84515400
 C                 -2.48893015    2.64793247   -1.36745400
 C                 -2.48886815    1.28041547   -0.84510200
 C                 -2.91677415    0.23391547   -1.64450700
 C                 -2.18477715   -1.03384353   -1.64452900
 C                  0.11972585   -2.36433353   -2.66101900
 C                 -1.06460015   -2.20296553   -3.50614400
 C                 -2.18481415   -1.55620753   -3.01203600
 C                 -2.91682815   -0.61129953   -3.85720300
 C                 -3.36919815    0.49505247   -3.01201000
 C                 -3.36925015    1.78857047   -3.50610800
 C                 -2.91688415    2.89494547   -2.66095700
 C                 -2.18499915    3.83990847   -3.50619100
 C                 -1.06477215    4.48671147   -3.01217300
 C                  2.72824385    2.64806347   -1.36763700
 C                  1.30380785    3.47024847   -5.67325800
 C                  2.42407785    3.31762647   -4.87388600
 C                  3.15605085    2.04987547   -4.87388000
 C                  2.72814885    1.00338047   -5.67330600
 C                  1.54381885    1.16475947   -6.51843700
 C                 -0.61246415    2.36386447   -6.51837200
 C                 -1.06483315    3.47022347   -5.67318700
 C                  0.11947585    4.15402447   -5.15088600
 C                  0.11951285    4.64812247   -3.85737800
 C                  1.30387185    4.48672747   -3.01221300
 C                  2.42409785    3.83999047   -3.50632700
 C                  3.60844585    1.78872547   -3.50637300
 C                  3.60850285    0.49523547   -3.01226300
 C                  3.15610985   -0.61116553   -3.85740200
 C                  2.72818185   -0.36414453   -5.15092200
 C                  1.54389785   -1.04794053   -5.67323000
 C                  0.81189585   -0.10304053   -6.51838300
 C                 -0.57277415   -0.10305653   -6.51832700
 C                 -1.30476115    1.16469347   -6.51833200
 C                 -2.18503415    3.31753047   -4.87370400
 C                 -2.91693315    2.04973747   -4.87365800
 C                 -2.48904815    1.00326147   -5.67310300
 C                 -2.48899315   -0.36426653   -5.15073900
 C                 -1.30466615   -1.04800953   -5.67312600
 C                 -0.61227815   -1.94178853   -4.87371500
 C                  0.85161485   -1.94176253   -4.87374700
 C                  1.30402985   -2.20289453   -3.50626500
 C                  2.42425085   -1.55609553   -3.01222400
 C                  3.15607285    2.89510747   -2.66118400
 C                  3.15618785    0.23406547   -1.64469900
 C                  0.85144385    2.36390247   -6.51840400









