%chk=geometry.chk
%mem=30GB
%nprocshared=12

#P OPT DFTBA

TitleMe

0 1
C          3.35792       -1.21361        3.58324
C          2.20037       -1.52255        5.64795
C          2.16986       -0.13807        5.84066
C          2.73244        0.73155        4.90936
C          3.32694        0.17844        3.77683
C          4.00572        0.75962        2.60878
N          4.42841       -0.22591        1.75725
N          4.13937        2.09074        2.47730
N          6.54207        2.71920       -1.64342
C          4.75394        2.66315        1.44222
C          4.94216        4.09254        1.26778
C          4.56176        5.19149        2.04723
C          4.90503        6.45844        1.60003
C          5.61212        6.64141        0.40068
C          5.99387        5.56168       -0.38110
C          5.65435        4.27686        0.05903
C          5.89670        2.95973       -0.50284
N          5.34073        2.04299        0.36183
C          4.05431       -1.42389        2.30503
C          2.79474       -2.07992        4.51827
C          6.74373        1.48109       -2.12634
C          8.02171        2.13641       -4.32949
C          6.01760       -2.60369       -1.27931
C          5.83822       -4.03362       -1.10009
C          6.23151       -5.13283       -1.87271
C          5.90396       -6.40101       -1.41765
C          5.19806       -6.58453       -0.21763
C          4.80188       -5.50469        0.55689
C          5.12737       -4.21867        0.10942
C          4.87701       -2.90131        0.66681
N          5.42730       -1.98395       -0.20021
N          4.24507       -2.66127        1.81573
C          7.44889        1.27062       -3.40026
C          8.62342        1.57909       -5.45554
C          8.65218        0.19474       -5.64938
C          8.08013       -0.67433       -4.72302
C          7.47778       -0.12095       -3.59513
C          6.78961       -0.70171       -2.43168
N          6.37349        0.28321       -1.57657
N          6.64319       -2.03204       -2.30762
H          5.39084       -0.95388       -0.06373
H          5.34989        1.01449        0.20984
H          6.20125       -7.28383       -2.00340
H          6.78526       -4.99082       -2.81208
H          8.10561       -1.76336       -4.87880
H          9.13677       -0.21138       -6.55038
H          9.08591        2.23635       -6.20766
H          8.00192        3.22647       -4.18019
H          6.54855        5.70656       -1.31949
H          5.86642        7.66303        0.08049
H          4.62064        7.34097        2.19266
H          4.00867        5.05055        2.98692
H          2.70594        1.82066        5.06404
H          1.69068        0.26776        6.74442
H          1.74468       -2.17996        6.40378
H          2.81650       -3.17000        4.36988
H          4.24986       -5.65069        1.49643
H          4.95760       -7.60723        0.10979
C         -1.05181       -1.48979        5.03411
C         -2.16444       -1.81961        7.12033
C         -2.19916       -0.43645        7.32294
C         -1.66062        0.44251        6.38616
C         -1.08665       -0.09941        5.23782
C         -0.43609        0.49397        4.06005
N         -0.03879       -0.48310        3.18543
N         -0.30403        1.82591        3.93913
N          2.07439        2.48895       -0.19041
C          0.30615        2.40710        2.90667
C          0.46903        3.83926        2.72925
C          0.06541        4.93278        3.50458
C          0.37813        6.20523        3.05094
C          1.07936        6.39851        1.84976
C          1.48554        5.32437        1.07244
C          1.17492        4.03420        1.51836
C          1.43946        2.72053        0.95864
N          0.90215        1.79590        1.82581
C         -0.38083       -1.68798        3.74064
C         -1.59012       -2.36562        5.97482
C          2.27788        1.25487       -0.68273
C          3.55107        1.92902       -2.88262
C          1.58671       -2.84056        0.14891
C          1.38897       -4.27064        0.30691
C          1.75789       -5.36280       -0.48735
C          1.40702       -6.63253       -0.05397
C          0.70383       -6.82474        1.14614
C          0.33363       -5.75176        1.94271
C          0.68099       -4.46431        1.51672
C          0.45031       -3.15232        2.09538
N          1.01056       -2.22955        1.23993
N         -0.18339       -2.92141        3.24460
C          2.98315        1.05496       -1.95782
C          4.15675        1.38066       -4.01082
C          4.19288       -0.00232       -4.21236
C          3.62562       -0.87971       -3.29116
C          3.02040       -0.33567       -2.15998
C          2.33654       -0.92671       -0.99983
N          1.90620        0.05183       -0.14388
N          2.20096       -2.25884       -0.88131
H          1.00732       -1.20210        1.39965
H          0.94729        0.76669        1.68534
H          1.68242       -7.50986       -0.65836
H          2.30810       -5.21460       -1.42759
H          3.65745       -1.96775       -3.45213
H          4.68127       -0.40090       -5.11438
H          4.61710        2.04438       -4.75824
H          3.52514        3.01802       -2.72713
H          2.03416        5.47789        0.13213
H          1.30807        7.42431        1.52370
H          0.07272        7.08372        3.63899
H         -0.48437        4.78315        4.44510
H         -1.68993        1.53035        6.54921
H         -2.66126       -0.03955        8.23970
H         -2.59989       -2.48482        7.88150
H         -1.56483       -3.45462        5.81899
H         -0.21779       -5.90391        2.88187
H          0.44336       -7.84821        1.45518
C         -7.91046       -0.94107       -1.45572
C         -7.28212        0.47195       -3.53887
C         -6.49020       -0.70719       -3.98906
C         -6.48102       -1.89923       -3.26584
C         -7.19930       -2.01752       -1.98460
C         -7.78360       -0.62508       -0.04783
C         -7.74137        0.82105        0.10935
C         -7.84096        1.43868       -1.19707
C         -7.06558        2.56070       -1.48698
C         -6.42071        1.67256       -3.73040
C         -5.25499       -0.20868       -4.55820
C         -4.07127       -0.95588       -4.47338
C         -4.07133       -2.21536       -3.75662
C         -5.25457       -2.67154       -3.15562
C         -5.20542       -3.26794       -1.82967
C         -6.40175       -2.86039       -1.10929
C         -6.32597       -2.58669        0.26503
C         -7.03196       -1.44344        0.80780
C         -6.94914        1.39190        1.11597
C         -6.16464        0.54160        1.99972
C         -6.20526       -0.84938        1.84854
C         -4.98103       -1.62989        1.94649
C         -5.05589       -2.70484        0.96682
C         -3.90600       -3.09537        0.26927
C         -3.98362       -3.38592       -1.15556
C         -2.75779       -2.90646       -1.77870
C         -2.80056       -2.33349       -3.05600
C         -5.21276        1.23745       -4.40102
C         -1.17687        0.87923       -2.18673
C         -1.93216        1.69945       -3.03533
C         -2.64928        2.84510       -2.49315
C         -2.58156        3.12709       -1.12292
C         -1.79270        2.27948       -0.24244
C         -1.09921       -0.08887       -0.03969
C         -1.17422       -1.16526       -1.01820
C         -1.21904       -0.56757       -2.34399
C         -2.01507       -1.14156       -3.34413
C         -2.80168       -0.28890       -4.22261
C         -2.76106        1.10211       -4.07144
C         -3.92035        2.95357       -3.19478
C         -5.07906        3.33760       -2.50249
C         -5.00391        3.63160       -1.07976
C         -3.78156        3.53147       -0.40373
C         -3.72982        2.93779        0.92496
C         -2.50332        2.16178        1.02442
C         -2.49774        0.94583        1.72045
C         -1.77930       -0.20190        1.18161
C         -1.92714       -2.31436       -0.74174
C         -2.63760       -2.43064        0.52518
C         -2.56601       -1.39521        1.46615
C         -3.76025       -0.98637        2.18933
C         -3.71804        0.46088        2.34655
C         -4.89806        1.21091        2.25522
C         -4.90462        2.47360        1.52965
C         -6.17498        2.58233        0.82685
C         -6.22623        3.14858       -0.45617
C         -3.98847        1.87947       -4.16521
C         -6.34730        2.67899       -2.76822
C         -1.10653        1.17464       -0.76400
C         -8.03675        0.34768       -2.19283
O         -8.73948        0.50620       -3.46247

@GAUSS_EXEDIR:dftba.prm








