56
geometry.out	Energy: -2723232.8689474
C          4.01344       -2.21978       -0.00011
C          3.74600       -0.87778       -0.00009
C          2.41685       -0.34873       -0.00003
C          1.35826       -1.31183       -0.00001
C          1.63486       -2.67885       -0.00003
C          2.95050       -3.17728       -0.00009
C          2.20432        1.05961        0.00002
C         -0.31803        0.99839       -0.00002
C          0.94230        1.69468        0.00004
C          0.85179        3.12872        0.00008
H          1.76978        3.70311        0.00015
C         -0.33758        3.80100        0.00004
C         -1.58107        3.08627       -0.00007
C         -1.52353        1.67766       -0.00010
H          5.04516       -2.54847       -0.00013
H          4.57978       -0.18674       -0.00011
H          0.79829       -3.36783       -0.00003
H         -0.32818        4.88429        0.00010
H         -2.43286        1.09913       -0.00017
N         -2.77778        3.72586       -0.00013
N          3.20760       -4.51920       -0.00014
P         -4.10957       -1.32647        0.00001
C          3.42372        1.93804        0.00003
C          4.00090        2.35234        1.20869
C          4.00090        2.35235       -1.20863
C          5.13412        3.16735        1.20738
H          3.55853        2.03564        2.14933
C          5.13413        3.16737       -1.20731
H          3.55853        2.03567       -2.14927
C          5.70328        3.57657        0.00004
H          5.57064        3.48227        2.15126
H          5.57064        3.48229       -2.15119
H          6.58503        4.21128        0.00005
F         -3.16850       -0.58648        1.15691
F         -3.06046       -2.58396        0.00002
F         -4.99403       -2.01684        1.16321
F         -4.99403       -2.01689       -1.16316
F         -3.16848       -0.58652       -1.15696
F         -5.07719       -0.00359       -0.00002
Se        -0.45659       -0.87223        0.00007
C         -2.84396        5.18220       -0.00010
H         -2.36468        5.60878       -0.89061
H         -3.88999        5.48799       -0.00027
H         -2.36499        5.60876        0.89060
C         -4.02216        2.94366        0.00002
H         -4.86805        3.63118        0.00021
H         -4.09007        2.29805       -0.88051
H         -4.08977        2.29793        0.88050
C          2.10402       -5.47436        0.00014
H          2.50766       -6.48703        0.00014
H          1.47242       -5.35713        0.88962
H          1.47211       -5.35727       -0.88913
C          4.57995       -5.01169       -0.00007
H          5.12961       -4.68061        0.89042
H          4.56547       -6.10179       -0.00035
H          5.12980       -4.68018       -0.89026
