53
geometry.out	Energy: -2924508.4860533
C          4.05519       -2.12586        0.11865
C          3.75627       -0.79111        0.14008
C          2.41607       -0.29343        0.10359
C          1.38079       -1.28007        0.05030
C          1.68954       -2.63994        0.02742
C          3.01603       -3.10770        0.05695
C         -0.35102        0.98955        0.05937
C          0.89132        1.71635        0.10799
C          0.76586        3.14702        0.14243
H          1.67037        3.74070        0.18855
C         -0.43896        3.79002        0.12872
C         -1.66447        3.04588        0.07712
C         -1.57235        1.63955        0.04430
H          5.09373       -2.43053        0.15070
H          4.57095       -0.07968        0.19489
H          0.86987       -3.34769       -0.01396
H         -0.45623        4.87276        0.15853
H         -2.46686        1.03961        0.00631
N         -2.87560        3.65666        0.06137
N          3.30551       -4.44231        0.03036
P         -4.07975       -1.42564       -0.05199
C          2.16868        1.11028        0.12403
C          3.35681        2.01097        0.16238
C          4.00559        2.51499        1.26056
S          4.12193        2.56827       -1.31216
C          5.11781        3.34961        0.93018
H          3.69385        2.29419        2.27597
C          5.30358        3.47159       -0.41797
H          5.74674        3.83519        1.66830
H          6.06061        4.03801       -0.94398
C         -2.97739        5.11094        0.09125
H         -4.03010        5.39157        0.06612
H         -2.53562        5.52839        1.00514
H         -2.48251        5.56827       -0.77496
C         -4.10054        2.84561        0.01199
H         -4.96249        3.51277        0.00960
H         -4.13220        2.22180       -0.88623
H         -4.17268        2.17572        0.87373
C          4.68880       -4.90266        0.06434
H          5.19835       -4.58932        0.98462
H          4.70081       -5.99213        0.02720
H          5.26098       -4.52838       -0.79405
C          2.22592       -5.42300       -0.02691
H          1.61749       -5.29648       -0.93105
H          2.65393       -6.42546       -0.04201
H          1.56632       -5.34482        0.84638
F         -3.17141       -0.68742        1.13191
F         -4.96415       -2.15802        1.08489
F         -4.93189       -2.11215       -1.24096
F         -3.13912       -0.64188       -1.18135
F         -5.07645       -0.12451       -0.04053
F         -3.00237       -2.65871       -0.06167
Se        -0.44300       -0.88294        0.00857
