%chk=geometry.chk
%mem=30GB
%nprocshared=12

#P DFTBA guess=read density=check
#P TD=(read,singlets,nstates=50,root=20) FORCE

TitleMe

0 1
C         -3.35538        1.29493        3.55829
C         -2.20960        1.65611        5.62105
C         -2.18327        0.27717        5.85051
C         -2.74241       -0.61571        4.93933
C         -3.32920       -0.09154        3.78914
C         -4.00207       -0.70198        2.63261
N         -4.41691        0.26158        1.75250
N         -4.13741       -2.03584        2.53484
N         -6.52616       -2.76493       -1.57747
C         -4.74800       -2.63354        1.51168
C         -4.93786       -4.06658        1.37278
C         -4.56185       -5.14603        2.18108
C         -4.90567       -6.42336        1.76494
C         -5.60898       -6.63556        0.56817
C         -5.98622       -5.57542       -0.24207
C         -5.64607       -4.28037        0.16651
C         -5.88440       -2.97754       -0.42928
N         -5.32964       -2.04009        0.41366
C         -4.04283        1.47278        2.27042
C         -2.79561        2.18453        4.47328
C         -6.72491       -1.53929       -2.09227
C         -8.00318       -2.24882       -4.27839
C         -5.98538        2.56364       -1.35355
C         -5.79713        3.99689       -1.21392
C         -6.18016        5.07641       -2.01875
C         -5.84597        6.35476       -1.59825
C         -5.14350        6.56741       -0.40105
C         -4.75747        5.50725        0.40514
C         -5.08974        4.21129       -0.00728
C         -4.85017        2.90852        0.58795
N         -5.40319        1.97068       -0.25511
N         -4.22551        2.69712        1.74638
C         -7.42848       -1.36045       -3.37191
C         -8.60296       -1.71964       -5.41896
C         -8.62804       -0.34078       -5.64900
C         -8.05411        0.55078       -4.74546
C         -7.45368        0.02560       -3.60315
C         -6.76445        0.63482       -2.45499
N         -6.35221       -0.32833       -1.57364
N         -6.61223        1.96741       -2.36696
H         -5.37368        0.94453       -0.09041
H         -5.33744       -1.01567        0.23619
H         -6.13516        7.22265       -2.20982
H         -6.73120        4.91161       -2.95599
H         -8.07668        1.63542       -4.92975
H         -9.11123        0.04285       -6.56055
H         -9.06687       -2.39519       -6.15381
H         -7.98628       -3.33464       -4.10056
H         -6.53787       -5.74318       -1.17842
H         -5.86390       -7.66456        0.27311
H         -4.62472       -7.29103        2.38068
H         -4.01170       -4.98215        3.11877
H         -2.71895       -1.70041        5.12285
H         -1.71014       -0.10550        6.76748
H         -1.75672        2.33236        6.36177
H         -2.81368        3.27033        4.29575
H         -4.20807        5.67608        1.34240
H         -4.89750        7.59733       -0.10157
C          1.04342        1.61005        5.01818
C          2.14491        1.97274        7.10484
C          2.16755        0.59367        7.33502
C          1.62835       -0.29959        6.41224
C          1.06590        0.22379        5.24969
C          0.41872       -0.38785        4.07941
N          0.03379        0.57469        3.18353
N          0.27996       -1.72113        3.98264
N         -2.08187       -2.44900       -0.14536
C         -0.32673       -2.31840        2.95740
C         -0.49145       -3.75309        2.80341
C         -0.09270       -4.83404        3.59860
C         -0.40509       -6.11348        3.16479
C         -1.10111       -6.32583        1.96384
C         -1.50233       -5.26425        1.16690
C         -1.19215       -3.96722        1.59276
C         -1.45146       -2.66269        1.00966
N         -0.91663       -1.72447        1.86365
C          0.38277        1.78765        3.71638
C          1.58243        2.50026        5.94487
C         -2.27502       -1.22316       -0.66198
C         -3.54887       -1.93086       -2.85076
C         -1.54835        2.88197        0.08763
C         -1.33832        4.31321        0.21651
C         -1.69231        5.39143       -0.60321
C         -1.33305        6.66694       -0.19446
C         -0.63592        6.87843        1.00598
C         -0.28044        5.81945        1.82756
C         -0.63649        4.52629        1.42667
C         -0.42194        3.22493        2.03467
N         -0.98457        2.28921        1.19503
N          0.20037        3.01234        3.19366
C         -2.97643       -1.04297       -1.94203
C         -4.14623       -1.40051       -3.99188
C         -4.17048       -0.02158       -4.22116
C         -3.59802        0.86953       -3.31645
C         -3.00075        0.34353       -2.17260
C         -2.31317        0.95197       -1.02368
N         -1.89266       -0.01285       -0.14738
N         -2.16485        2.28486       -0.93240
H         -0.99200        1.26573        1.37815
H         -0.96117       -0.69766        1.70650
H         -1.59664        7.53365       -0.81912
H         -2.23784        5.22803       -1.54366
H         -3.61987        1.95428       -3.49977
H         -4.65264        0.36276       -5.13268
H         -4.60981       -2.07531       -4.72726
H         -3.53259       -3.01664       -2.67310
H         -2.04688       -5.43277        0.22679
H         -1.32979       -7.35660        1.65385
H         -0.10346       -6.98245        3.76874
H          0.45313       -4.66946        4.53892
H          1.64821       -1.38417        6.59700
H          2.62064        0.21151        8.26248
H          2.58047        2.64960        7.85562
H          1.56672        3.58610        5.76725
H          0.26616        5.98670        2.76695
H         -0.36837        7.90592        1.29498
C          7.89304        0.89260       -1.46918
C          7.27840       -0.59054       -3.50726
C          6.48735        0.57154       -4.00103
C          6.47238        1.78717       -3.31830
C          7.18330        1.94954       -2.03779
C          7.75874        0.62381       -0.05217
C          7.71774       -0.81629        0.15321
C          7.82557       -1.47724       -1.13121
C          7.05347       -2.60964       -1.38759
C          6.41988       -1.79829       -3.66307
C          5.25603        0.05219       -4.55997
C          4.07078        0.79986       -4.50682
C          4.06499        2.08269       -3.83275
C          5.24418        2.56070       -3.24085
C          5.18676        3.20118       -1.93595
C          6.37962        2.81998       -1.19568
C          6.29654        2.59242        0.18660
C          7.00115        1.46917        0.77134
C          6.92074       -1.35436        1.17400
C          6.13007       -0.47619        2.02437
C          6.16950        0.90901        1.82682
C          4.94362        1.69036        1.89175
C          5.02239        2.73196        0.87699
C          3.87587        3.09700        0.16036
C          3.96103        3.33970       -1.27297
C          2.73942        2.83760       -1.88645
C          2.79016        2.22216       -3.14354
C          5.21503       -1.38791       -4.35459
C          1.16629       -0.96226       -2.17597
C          1.92751       -1.80924       -2.99237
C          2.64329       -2.93486       -2.40809
C          2.56830       -3.17086       -1.02957
C          1.77333       -2.29543       -0.18244
C          1.07506        0.07722       -0.06310
C          1.15416        1.12028       -1.07675
C          1.20725        0.47853       -2.38144
C          2.00803        1.01994       -3.39585
C          2.80078        0.13959       -4.24087
C          2.76135       -1.24563       -4.04332
C          3.91840       -3.06474       -3.09863
C          5.07379       -3.42341       -2.38744
C          4.99111       -3.66965       -0.95609
C          3.76485       -3.54891       -0.29058
C          3.70479       -2.91111        1.01714
C          2.47661       -2.13424        1.08374
C          2.46548       -0.89559        1.73843
C          1.74839        0.23221        1.15735
C          1.90382        2.27922       -0.83483
C          2.60697        2.43920        0.43141
C          2.53174        1.43567        1.40610
C          3.72246        1.05331        2.14927
C          3.68147       -0.38789        2.35475
C          4.86307       -1.13864        2.29517
C          4.87552       -2.42495        1.61243
C          6.14994       -2.55510        0.92070
C          6.20921       -3.16398       -0.34229
C          3.99038       -2.02366       -4.10415
C          6.34255       -2.77202       -2.66809
C          1.08828       -1.20995       -0.74455
C          8.02540       -0.41993       -2.16181
O          8.73535       -0.61980       -3.42156

@GAUSS_EXEDIR:dftba.prm








